LAMMPS (29 Aug 2024 - Development - patch_29Aug2024-704-g6d0e633edf)
# LAMMPS input generated from LammpsInputFile with pymatgen v2024.10.29

# Initialization
units metal
atom_style atomic
dimension 3
boundary p p p
pair_style tersoff

# AtomDefinition
read_data system.data
Reading data file ...
  triclinic box = (0 0 0) to (20.695659 17.922967 16.897935) with tilt (10.34783 10.34783 5.974322)
  reading atoms ...
  250 atoms

# ForceField
include forcefield.lammps
pair_coeff * * /Users/virkaran/Code/Notebooks/lammps_flows/pmg_data/Si.tersoff Si
Reading tersoff potential file /Users/virkaran/Code/Notebooks/lammps_flows/pmg_data/Si.tersoff with DATE: 2007-10-25

# Velocities
velocity all create 3000 42 mom yes rot yes dist gaussian
neigh_modify delay 5 every 1 check yes

# Ensemble
fix 1 all npt temp 3000 1000 0.1 iso 1.0 1.0 0.1

# Outputs
thermo 100
dump d1 all custom 100 traj.dump id element x y z vx vy vz fx fy fz
dump_modify d1 sort id element Si

# Actions
write_restart md.restart
System init for write_restart ...
timestep 0.001
run 10000

CITE-CITE-CITE-CITE-CITE-CITE-CITE-CITE-CITE-CITE-CITE-CITE-CITE

Your simulation uses code contributions which should be cited:

- Type Label Framework: https://doi.org/10.1021/acs.jpcb.3c08419

@Article{Gissinger24,
 author = {Jacob R. Gissinger, Ilia Nikiforov, Yaser Afshar, Brendon Waters, Moon-ki Choi, Daniel S. Karls, Alexander Stukowski, Wonpil Im, Hendrik Heinz, Axel Kohlmeyer, and Ellad B. Tadmor},
 title = {Type Label Framework for Bonded Force Fields in LAMMPS},
 journal = {J. Phys. Chem. B},
 year =    2024,
 volume =  128,
 number =  13,
 pages =   {3282--3297}
}

CITE-CITE-CITE-CITE-CITE-CITE-CITE-CITE-CITE-CITE-CITE-CITE-CITE

Step          Temp          E_pair         E_mol          TotEng         Press          Volume
0   3000          -971.25594      0             -874.69861      7615.2924      6267.9107
Averages over the last 51 of 101 rows, steps 5000 to 10000:
Temp E_pair E_mol TotEng Press Volume
1522.47 -1056.82 0 -1007.82 35.9228 200279
Loop time of 5.23082 on 1 procs for 10000 steps with 250 atoms
