LAMMPS (29 Aug 2024 - Development - patch_29Aug2024-704-g6d0e633edf)
# LAMMPS input generated from LammpsInputFile with pymatgen v2024.10.29

# Initialization
units metal
atom_style atomic
dimension 3
boundary p p p
pair_style tersoff

# AtomDefinition
read_data system.data
Reading data file ...
  triclinic box = (0 0 0) to (19.334873 16.744491 15.786858) with tilt (9.667437 9.667437 5.581497)
  reading atoms ...
  250 atoms

# ForceField
include forcefield.lammps
pair_coeff * * /Users/virkaran/Code/Notebooks/lammps_flows/pmg_data/Si.tersoff Si
Reading tersoff potential file /Users/virkaran/Code/Notebooks/lammps_flows/pmg_data/Si.tersoff with DATE: 2007-10-25

# Velocities
velocity all create 300 42 mom yes rot yes dist gaussian
neigh_modify delay 5 every 1 check yes

# Ensemble
fix 1 all nve
fix 2 all langevin 300 1000 0.1 42

# Outputs
thermo 500
dump d1 all custom 100 traj.dump id element x y z vx vy vz fx fy fz
dump_modify d1 sort id element Si

# Actions
timestep 0.001
run 100000

CITE-CITE-CITE-CITE-CITE-CITE-CITE-CITE-CITE-CITE-CITE-CITE-CITE

Your simulation uses code contributions which should be cited:

- Type Label Framework: https://doi.org/10.1021/acs.jpcb.3c08419

@Article{Gissinger24,
 author = {Jacob R. Gissinger, Ilia Nikiforov, Yaser Afshar, Brendon Waters, Moon-ki Choi, Daniel S. Karls, Alexander Stukowski, Wonpil Im, Hendrik Heinz, Axel Kohlmeyer, and Ellad B. Tadmor},
 title = {Type Label Framework for Bonded Force Fields in LAMMPS},
 journal = {J. Phys. Chem. B},
 year =    2024,
 volume =  128,
 number =  13,
 pages =   {3282--3297}
}

CITE-CITE-CITE-CITE-CITE-CITE-CITE-CITE-CITE-CITE-CITE-CITE-CITE

Step          Temp          E_pair         E_mol          TotEng         Press
0   300           -1156.9637      0             -1147.3079     -17230.329
Averages over the last 101 of 201 rows, steps 50000 to 100000:
Temp E_pair E_mol TotEng Press
827.729 -1127.76 0 -1101.12 -18442
Loop time of 37.8387 on 1 procs for 100000 steps with 250 atoms

write_restart md.restart
System init for write_restart ...
